<?xml version="1.0" encoding="UTF-8"?>

<!-- generated on 2025-11-04 22:43:18 by Eclipse SUMO netedit Version 1.24.0
<neteditConfiguration xmlns:xsi="http://www.w3.org/2001/XMLSchema-instance" xsi:noNamespaceSchemaLocation="http://sumo.dlr.de/xsd/neteditConfiguration.xsd">

    <input>
        <sumocfg-file value="D:\Vrishank\Vrishank\NITK\Sem_5\CC\Mini-project\test2.sumocfg"/>
        <route-files value="D:\Vrishank\Vrishank\NITK\Sem_5\CC\Mini-project\test2.rou.xml"/>
        <sumo-net-file value="D:\Vrishank\Vrishank\NITK\Sem_5\CC\Mini-project\Test2.net.xml"/>
    </input>

    <output>
        <output-file value="D:\Vrishank\Vrishank\NITK\Sem_5\CC\Mini-project\Test2.net.xml"/>
    </output>

    <processing>
        <geometry.min-radius.fix.railways value="false"/>
        <geometry.avoid-overlap value="false"/>
        <geometry.max-grade.fix value="false"/>
        <offset.disable-normalization value="true"/>
        <lefthand value="0"/>
    </processing>

    <junctions>
        <no-turnarounds value="true"/>
        <junctions.corner-detail value="5"/>
        <junctions.limit-turn-speed value="5.50"/>
        <rectangular-lane-cut value="0"/>
    </junctions>

    <pedestrian>
        <walkingareas value="0"/>
    </pedestrian>

</neteditConfiguration>
-->

<net version="1.20" junctionCornerDetail="5" limitTurnSpeed="5.50" avoidOverlap="0" xmlns:xsi="http://www.w3.org/2001/XMLSchema-instance" xsi:noNamespaceSchemaLocation="http://sumo.dlr.de/xsd/net_file.xsd">

    <location netOffset="0.00,0.00" convBoundary="-60.44,-25.58,38.05,78.40" origBoundary="-10000000000.00,-10000000000.00,10000000000.00,10000000000.00" projParameter="!"/>

    <edge id=":clusterJ16_J17_0" function="internal">
        <lane id=":clusterJ16_J17_0_0" index="0" speed="13.20" length="14.14" shape="-15.83,44.78 -13.66,41.88 -12.12,38.79 -11.19,35.47 -10.87,31.87"/>
    </edge>
    <edge id=":clusterJ16_J17_1" function="internal">
        <lane id=":clusterJ16_J17_1_0" index="0" speed="13.89" length="12.91" shape="-10.77,44.78 -10.87,31.87"/>
    </edge>
    <edge id=":clusterJ1_J5_0" function="internal">
        <lane id=":clusterJ1_J5_0_0" index="0" speed="9.03" length="8.64" shape="-33.77,57.57 -30.82,57.53 -28.45,57.22 -26.69,56.64 -25.52,55.79"/>
    </edge>
    <edge id=":clusterJ1_J5_1" function="internal">
        <lane id=":clusterJ1_J5_1_0" index="0" speed="13.89" length="7.92" shape="-30.76,61.73 -25.52,55.79"/>
    </edge>
    <edge id=":clusterJ5_J6_0" function="internal">
        <lane id=":clusterJ5_J6_0_0" index="0" speed="13.89" length="13.42" shape="-1.74,12.04 -3.77,14.98 -5.70,17.66 -7.14,20.47 -7.71,23.82"/>
    </edge>
    <edge id=":clusterJ5_J6_1" function="internal">
        <lane id=":clusterJ5_J6_1_0" index="0" speed="13.89" length="9.19" shape="-7.69,14.62 -7.71,23.82"/>
    </edge>
    <edge id=":clusterJ7_J8_0" function="internal">
        <lane id=":clusterJ7_J8_0_0" index="0" speed="9.77" length="8.91" shape="12.18,-1.31 9.14,-0.50 6.80,0.37 5.14,1.29 4.18,2.27"/>
    </edge>
    <edge id=":clusterJ7_J8_1" function="internal">
        <lane id=":clusterJ7_J8_1_0" index="0" speed="13.89" length="7.84" shape="8.25,-4.43 4.18,2.27"/>
    </edge>

    <edge id="-E0" from="J3" to="clusterJ16_J17" priority="-1" shape="-9.23,69.79 -9.14,31.87">
        <lane id="-E0_0" index="0" speed="13.89" length="25.01" shape="-10.83,69.79 -10.77,44.78"/>
    </edge>
    <edge id="-E0.37" from="clusterJ16_J17" to="J2" priority="-1" shape="-9.27,31.87 -9.15,-21.49">
        <lane id="-E0.37_0" index="0" speed="13.89" length="53.36" shape="-10.87,31.87 -10.75,-21.49"/>
    </edge>
    <edge id="E0" from="J2" to="clusterJ5_J6" priority="-1" shape="-9.15,-21.49 -9.30,17.27">
        <lane id="E0_0" index="0" speed="13.89" length="36.11" shape="-7.55,-21.48 -7.69,14.62"/>
    </edge>
    <edge id="E0.53" from="clusterJ5_J6" to="J3" priority="-1" shape="-9.30,17.27 -9.36,69.79">
        <lane id="E0.53_0" index="0" speed="13.89" length="45.98" shape="-7.71,23.82 -7.76,69.79"/>
    </edge>
    <edge id="E1" from="J4" to="clusterJ7_J8" priority="-1" shape="19.21,-25.58 3.92,-0.38">
        <lane id="E1_0" index="0" speed="13.89" length="23.76" shape="20.58,-24.75 8.25,-4.43"/>
    </edge>
    <edge id="E1.29" from="clusterJ7_J8" to="clusterJ5_J6" priority="-1" shape="3.92,-0.38 -3.11,11.21">
        <lane id="E1.29_0" index="0" speed="13.89" length="11.43" shape="4.18,2.27 -1.74,12.04"/>
    </edge>
    <edge id="E2" from="J0" to="clusterJ1_J5" priority="-1" shape="-60.44,58.38 -33.82,59.17">
        <lane id="E2_0" index="0" speed="13.89" length="26.63" shape="-60.40,56.78 -33.77,57.57"/>
    </edge>
    <edge id="E3" from="J6" to="clusterJ7_J8" priority="-1" shape="38.05,-8.90 11.82,-2.87">
        <lane id="E3_0" index="0" speed="13.89" length="26.91" shape="38.41,-7.34 12.18,-1.31"/>
    </edge>
    <edge id="E4" from="J15" to="clusterJ1_J5" priority="-1" shape="-43.31,78.40 -27.61,60.58">
        <lane id="E4_0" index="0" speed="13.89" length="20.81" shape="-44.51,77.34 -30.76,61.73"/>
    </edge>
    <edge id="E4.23" from="clusterJ1_J5" to="clusterJ16_J17" priority="-1" shape="-27.61,60.58 -14.63,45.84">
        <lane id="E4.23_0" index="0" speed="13.89" length="14.66" shape="-25.52,55.79 -15.83,44.78"/>
    </edge>

    <junction id="J0" type="dead_end" x="-60.44" y="58.38" incLanes="" intLanes="" shape="-60.44,58.38 -60.35,55.18"/>
    <junction id="J15" type="dead_end" x="-43.31" y="78.40" incLanes="" intLanes="" shape="-43.31,78.40 -45.71,76.28"/>
    <junction id="J2" type="dead_end" x="-9.15" y="-21.49" incLanes="-E0.37_0" intLanes="" shape="-9.15,-21.49 -5.95,-21.48 -12.35,-21.50"/>
    <junction id="J3" type="dead_end" x="-9.36" y="69.79" incLanes="E0.53_0" intLanes="" shape="-9.23,69.79 -12.43,69.78 -6.16,69.79"/>
    <junction id="J4" type="dead_end" x="19.21" y="-25.58" incLanes="" intLanes="" shape="19.21,-25.58 21.95,-23.92"/>
    <junction id="J6" type="dead_end" x="38.05" y="-8.90" incLanes="" intLanes="" shape="38.05,-8.90 38.77,-5.78"/>
    <junction id="clusterJ16_J17" type="priority" x="-11.95" y="38.85" incLanes="E4.23_0 -E0_0" intLanes=":clusterJ16_J17_0_0 :clusterJ16_J17_1_0" shape="-9.27,31.87 -12.47,31.86 -12.52,34.62 -12.73,36.70 -13.18,38.39 -13.99,39.94 -15.24,41.63 -17.03,43.72 -14.63,45.84 -13.37,44.58 -12.93,44.29 -12.62,44.23 -12.43,44.39 -12.37,44.78 -9.17,44.78">
        <request index="0" response="00" foes="10" cont="0"/>
        <request index="1" response="01" foes="01" cont="0"/>
    </junction>
    <junction id="clusterJ1_J5" type="priority" x="-30.72" y="59.87" incLanes="E2_0 E4_0" intLanes=":clusterJ1_J5_0_0 :clusterJ1_J5_1_0" shape="-24.32,56.84 -26.72,54.73 -28.05,55.49 -29.10,55.74 -30.39,55.91 -31.93,55.98 -33.73,55.97 -33.82,59.17 -32.23,59.37 -31.80,59.59 -31.61,59.87 -31.66,60.24 -31.96,60.67 -29.55,62.78">
        <request index="0" response="00" foes="10" cont="0"/>
        <request index="1" response="01" foes="01" cont="0"/>
    </junction>
    <junction id="clusterJ5_J6" type="priority" x="-6.21" y="14.24" incLanes="E1.29_0 E0_0" intLanes=":clusterJ5_J6_0_0 :clusterJ5_J6_1_0" shape="-0.37,12.87 -3.11,11.21 -4.77,13.78 -5.35,14.53 -5.76,14.92 -6.01,14.95 -6.09,14.63 -9.29,14.62 -9.31,23.81 -6.11,23.82 -5.90,21.23 -5.33,19.41 -4.44,18.01 -3.28,16.68 -1.91,15.09">
        <request index="0" response="00" foes="10" cont="0"/>
        <request index="1" response="01" foes="01" cont="0"/>
    </junction>
    <junction id="clusterJ7_J8" type="priority" x="7.87" y="-1.62" incLanes="E3_0 E1_0" intLanes=":clusterJ7_J8_0_0 :clusterJ7_J8_1_0" shape="12.54,0.25 11.82,-2.87 10.21,-2.63 9.73,-2.70 9.48,-2.88 9.44,-3.18 9.62,-3.60 6.88,-5.26 2.82,1.44 5.55,3.10 6.72,2.14 7.74,1.67 9.05,1.19 10.65,0.72">
        <request index="0" response="00" foes="10" cont="0"/>
        <request index="1" response="01" foes="01" cont="0"/>
    </junction>

    <connection from="-E0" to="-E0.37" fromLane="0" toLane="0" via=":clusterJ16_J17_1_0" dir="s" state="m"/>
    <connection from="E0" to="E0.53" fromLane="0" toLane="0" via=":clusterJ5_J6_1_0" dir="s" state="m"/>
    <connection from="E1" to="E1.29" fromLane="0" toLane="0" via=":clusterJ7_J8_1_0" dir="s" state="m"/>
    <connection from="E1.29" to="E0.53" fromLane="0" toLane="0" via=":clusterJ5_J6_0_0" dir="s" state="M"/>
    <connection from="E2" to="E4.23" fromLane="0" toLane="0" via=":clusterJ1_J5_0_0" dir="r" state="M"/>
    <connection from="E3" to="E1.29" fromLane="0" toLane="0" via=":clusterJ7_J8_0_0" dir="r" state="M"/>
    <connection from="E4" to="E4.23" fromLane="0" toLane="0" via=":clusterJ1_J5_1_0" dir="s" state="m"/>
    <connection from="E4.23" to="-E0.37" fromLane="0" toLane="0" via=":clusterJ16_J17_0_0" dir="s" state="M"/>

    <connection from=":clusterJ16_J17_0" to="-E0.37" fromLane="0" toLane="0" dir="s" state="M"/>
    <connection from=":clusterJ16_J17_1" to="-E0.37" fromLane="0" toLane="0" dir="s" state="M"/>
    <connection from=":clusterJ1_J5_0" to="E4.23" fromLane="0" toLane="0" dir="r" state="M"/>
    <connection from=":clusterJ1_J5_1" to="E4.23" fromLane="0" toLane="0" dir="s" state="M"/>
    <connection from=":clusterJ5_J6_0" to="E0.53" fromLane="0" toLane="0" dir="s" state="M"/>
    <connection from=":clusterJ5_J6_1" to="E0.53" fromLane="0" toLane="0" dir="s" state="M"/>
    <connection from=":clusterJ7_J8_0" to="E1.29" fromLane="0" toLane="0" dir="r" state="M"/>
    <connection from=":clusterJ7_J8_1" to="E1.29" fromLane="0" toLane="0" dir="s" state="M"/>

</net>
