<?xml version="1.0" encoding="UTF-8"?>
<routes xmlns:xsi="http://www.w3.org/2001/XMLSchema-instance" xsi:noNamespaceSchemaLocation="http://sumo.dlr.de/xsd/routes_file.xsd">

    <route id="route_main_S" edges="-E0 -E0.37"/>
    <route id="route_main_N" edges="E0 E0.53"/>
    
    <route id="route_J1_agent" edges="E4 E4.23 -E0.37"/>
    
    <route id="route_J2_agent" edges="E1 E1.29 E0.53"/>

    <route id="route_J3_agent" edges="E2 E4.23 -E0.37"/>
    
    <route id="route_J4_baseline" edges="E3 E1.29 E0.53"/>
    
    <vehicle id="ego_J1" depart="1.00" route="route_J1_agent" color="1,0,0">
        <param key="vClass" value="rl"/>
    </vehicle>
    
    <vehicle id="ego_J2" depart="1.00" route="route_J2_agent" color="0,1,0">
        <param key="vClass" value="rl"/>
    </vehicle>
    
    <vehicle id="ego_J3" depart="1.00" route="route_J3_agent" color="0,0,1">
        <param key="vClass" value="rl"/>
    </vehicle>

    <flow id="f_0" begin="0.00" route="route_main_S" end="3600.00" period="10.00" color="0.8,0.8,0.8"/>
    <flow id="f_1" begin="0.00" route="route_main_N" end="3600.00" period="10.00" color="0.8,0.8,0.8"/>
    
    <flow id="f_2" begin="0.00" from="E4" to="E4.23" end="3600.00" period="13.00" color="0.7,0.7,0.7"/> 
    
    <flow id="f_5_baseline_J4" begin="0.00" route="route_J4_baseline" end="3600.00" period="16.00" color="0.5,0.5,1.0"/>

</routes>