<?xml version="1.0" encoding="UTF-8"?>

<!-- generated on 2025-11-04 22:43:18 by Eclipse SUMO netedit Version 1.24.0
-->

<routes xmlns:xsi="http://www.w3.org/2001/XMLSchema-instance" xsi:noNamespaceSchemaLocation="http://sumo.dlr.de/xsd/routes_file.xsd">
    <!-- Vehicles, persons and containers (sorted by depart) -->
    <flow id="f_0" begin="0.00" from="-E0" to="-E0.37" end="3600.00" period="10.00"/>
    <flow id="f_1" begin="0.00" from="E0" to="E0.53" end="3600.00" period="10.00"/>
    <flow id="f_2" begin="0.00" from="E4" to="-E0.37" via="E4.23" end="3600.00" period="13.00"/>
    <flow id="f_3" begin="0.00" from="E2" to="-E0.37" via="E4.23" end="3600.00" period="16.00"/>
    <flow id="f_4" begin="0.00" from="E1" to="E0.53" via="E1.29" end="3600.00" period="13.00"/>
    <flow id="f_5" begin="0.00" from="E3" to="E0.53" via="E1.29" end="3600.00" period="16.00"/>
</routes>
